# generated using pymatgen
data_PtO2
_symmetry_space_group_name_H-M   P6_3mc
_cell_length_a   3.13141941
_cell_length_b   3.13141941
_cell_length_c   8.58337362
_cell_angle_alpha   90.00000000
_cell_angle_beta   90.00000000
_cell_angle_gamma   120.00000000
_symmetry_Int_Tables_number   186
_chemical_formula_structural   PtO2
_chemical_formula_sum   'Pt2 O4'
_cell_volume   72.89053310
_cell_formula_units_Z   2
loop_
 _symmetry_equiv_pos_site_id
 _symmetry_equiv_pos_as_xyz
  1  'x, y, z'
  2  'x-y, x, z+1/2'
  3  '-y, x-y, z'
  4  '-x, -y, z+1/2'
  5  '-x+y, -x, z'
  6  'y, -x+y, z+1/2'
  7  'y, x, z+1/2'
  8  'x, x-y, z'
  9  'x-y, -y, z+1/2'
  10  '-y, -x, z'
  11  '-x, -x+y, z+1/2'
  12  '-x+y, y, z'
loop_
 _atom_type_symbol
 _atom_type_oxidation_number
  Pt4+  4.0
  O2-  -2.0
loop_
 _atom_site_type_symbol
 _atom_site_label
 _atom_site_symmetry_multiplicity
 _atom_site_fract_x
 _atom_site_fract_y
 _atom_site_fract_z
 _atom_site_occupancy
  Pt4+  Pt0  2  0.33333333  0.66666667  0.99998614  1
  O2-  O1  2  0.00000000  0.00000000  0.10918539  1
  O2-  O2  2  0.33333333  0.66666667  0.39082647  1
